* NGSPICE file created from sample_pads.ext - technology: gf180mcuD

.subckt pmos_6p0_CDNS_406619531455 w_n208_n120# D a_5124_n44# a_3904_n44# a_5368_n44#
+ a_4392_n44# a_2928_n44# a_1952_n44# a_4148_n44# a_3172_n44# a_1708_n44# a_2196_n44#
+ a_732_n44# a_976_n44# a_0_n44# a_5612_n44# a_4880_n44# S a_4636_n44# a_3660_n44#
+ a_3416_n44# a_2440_n44# a_2684_n44# a_1220_n44# a_1464_n44# a_244_n44# a_488_n44#
X0 S a_2196_n44# D w_n208_n120# pfet_05v0 ad=1.3p pd=5.52u as=1.3p ps=5.52u w=5u l=0.7u
X1 S a_1708_n44# D w_n208_n120# pfet_05v0 ad=1.3p pd=5.52u as=1.3p ps=5.52u w=5u l=0.7u
X2 S a_3172_n44# D w_n208_n120# pfet_05v0 ad=1.3p pd=5.52u as=1.3p ps=5.52u w=5u l=0.7u
X3 S a_4148_n44# D w_n208_n120# pfet_05v0 ad=1.3p pd=5.52u as=1.3p ps=5.52u w=5u l=0.7u
X4 D a_1952_n44# S w_n208_n120# pfet_05v0 ad=1.3p pd=5.52u as=1.3p ps=5.52u w=5u l=0.7u
X5 D a_2928_n44# S w_n208_n120# pfet_05v0 ad=1.3p pd=5.52u as=1.3p ps=5.52u w=5u l=0.7u
X6 D a_4392_n44# S w_n208_n120# pfet_05v0 ad=1.3p pd=5.52u as=1.3p ps=5.52u w=5u l=0.7u
X7 D a_5368_n44# S w_n208_n120# pfet_05v0 ad=1.3p pd=5.52u as=1.3p ps=5.52u w=5u l=0.7u
X8 D a_3904_n44# S w_n208_n120# pfet_05v0 ad=1.3p pd=5.52u as=1.3p ps=5.52u w=5u l=0.7u
X9 S a_5124_n44# D w_n208_n120# pfet_05v0 ad=1.3p pd=5.52u as=1.3p ps=5.52u w=5u l=0.7u
X10 D a_976_n44# S w_n208_n120# pfet_05v0 ad=1.3p pd=5.52u as=1.3p ps=5.52u w=5u l=0.7u
X11 S a_732_n44# D w_n208_n120# pfet_05v0 ad=1.3p pd=5.52u as=1.3p ps=5.52u w=5u l=0.7u
X12 D a_1464_n44# S w_n208_n120# pfet_05v0 ad=1.3p pd=5.52u as=1.3p ps=5.52u w=5u l=0.7u
X13 S a_1220_n44# D w_n208_n120# pfet_05v0 ad=1.3p pd=5.52u as=1.3p ps=5.52u w=5u l=0.7u
X14 S a_2684_n44# D w_n208_n120# pfet_05v0 ad=1.3p pd=5.52u as=1.3p ps=5.52u w=5u l=0.7u
X15 D a_2440_n44# S w_n208_n120# pfet_05v0 ad=1.3p pd=5.52u as=1.3p ps=5.52u w=5u l=0.7u
X16 D a_3416_n44# S w_n208_n120# pfet_05v0 ad=1.3p pd=5.52u as=1.3p ps=5.52u w=5u l=0.7u
X17 S a_3660_n44# D w_n208_n120# pfet_05v0 ad=1.3p pd=5.52u as=1.3p ps=5.52u w=5u l=0.7u
X18 S a_4636_n44# D w_n208_n120# pfet_05v0 ad=1.3p pd=5.52u as=1.3p ps=5.52u w=5u l=0.7u
X19 D a_4880_n44# S w_n208_n120# pfet_05v0 ad=1.3p pd=5.52u as=1.3p ps=5.52u w=5u l=0.7u
X20 S a_5612_n44# D w_n208_n120# pfet_05v0 ad=2.2p pd=10.88u as=1.3p ps=5.52u w=5u l=0.7u
X21 S a_244_n44# D w_n208_n120# pfet_05v0 ad=1.3p pd=5.52u as=1.3p ps=5.52u w=5u l=0.7u
X22 D a_488_n44# S w_n208_n120# pfet_05v0 ad=1.3p pd=5.52u as=1.3p ps=5.52u w=5u l=0.7u
X23 D a_0_n44# S w_n208_n120# pfet_05v0 ad=1.3p pd=5.52u as=2.2p ps=10.88u w=5u l=0.7u
.ends

.subckt nmos_6p0_CDNS_406619531459 D a_0_n44# S VSUBS
X0 D a_0_n44# S VSUBS nfet_05v0 ad=2.2p pd=10.88u as=2.2p ps=10.88u w=5u l=0.7u
.ends

.subckt pmos_6p0_CDNS_406619531456 w_n208_n120# D a_0_n44# S a_244_n44# a_488_n44#
X0 S a_244_n44# D w_n208_n120# pfet_05v0 ad=1.3p pd=5.52u as=1.3p ps=5.52u w=5u l=0.7u
X1 D a_488_n44# S w_n208_n120# pfet_05v0 ad=2.2p pd=10.88u as=1.3p ps=5.52u w=5u l=0.7u
X2 D a_0_n44# S w_n208_n120# pfet_05v0 ad=1.3p pd=5.52u as=2.2p ps=10.88u w=5u l=0.7u
.ends

.subckt ppolyf_u_CDNS_406619531453 PLUS MINUS VSUBS
X0 PLUS MINUS VSUBS ppolyf_u r_width=0.8u r_length=63.855u
.ends

.subckt comp018green_esd_rc_v5p0 ppolyf_u_CDNS_406619531453_10/MINUS ppolyf_u_CDNS_406619531453_3/PLUS
+ ppolyf_u_CDNS_406619531453_11/MINUS ppolyf_u_CDNS_406619531453_0/PLUS ppolyf_u_CDNS_406619531453_11/PLUS
+ ppolyf_u_CDNS_406619531453_0/MINUS ppolyf_u_CDNS_406619531453_7/PLUS ppolyf_u_CDNS_406619531453_1/MINUS
+ ppolyf_u_CDNS_406619531453_2/MINUS ppolyf_u_CDNS_406619531453_3/MINUS ppolyf_u_CDNS_406619531453_4/PLUS
+ ppolyf_u_CDNS_406619531453_4/MINUS ppolyf_u_CDNS_406619531453_5/MINUS M1_NWELL_CDNS_40661953145128_1/w_n128_n1844#
+ ppolyf_u_CDNS_406619531453_1/PLUS ppolyf_u_CDNS_406619531453_6/MINUS ppolyf_u_CDNS_406619531453_7/MINUS
+ ppolyf_u_CDNS_406619531453_8/MINUS ppolyf_u_CDNS_406619531453_9/MINUS ppolyf_u_CDNS_406619531453_8/PLUS
+ ppolyf_u_CDNS_406619531453_5/PLUS ppolyf_u_CDNS_406619531453_2/PLUS ppolyf_u_CDNS_406619531453_10/PLUS
+ ppolyf_u_CDNS_406619531453_9/PLUS ppolyf_u_CDNS_406619531453_6/PLUS VSUBS
Xppolyf_u_CDNS_406619531453_0 ppolyf_u_CDNS_406619531453_0/PLUS ppolyf_u_CDNS_406619531453_0/MINUS
+ VSUBS ppolyf_u_CDNS_406619531453
Xppolyf_u_CDNS_406619531453_1 ppolyf_u_CDNS_406619531453_1/PLUS ppolyf_u_CDNS_406619531453_1/MINUS
+ VSUBS ppolyf_u_CDNS_406619531453
Xppolyf_u_CDNS_406619531453_2 ppolyf_u_CDNS_406619531453_2/PLUS ppolyf_u_CDNS_406619531453_2/MINUS
+ VSUBS ppolyf_u_CDNS_406619531453
Xppolyf_u_CDNS_406619531453_3 ppolyf_u_CDNS_406619531453_3/PLUS ppolyf_u_CDNS_406619531453_3/MINUS
+ VSUBS ppolyf_u_CDNS_406619531453
Xppolyf_u_CDNS_406619531453_4 ppolyf_u_CDNS_406619531453_4/PLUS ppolyf_u_CDNS_406619531453_4/MINUS
+ VSUBS ppolyf_u_CDNS_406619531453
Xppolyf_u_CDNS_406619531453_5 ppolyf_u_CDNS_406619531453_5/PLUS ppolyf_u_CDNS_406619531453_5/MINUS
+ VSUBS ppolyf_u_CDNS_406619531453
Xppolyf_u_CDNS_406619531453_6 ppolyf_u_CDNS_406619531453_6/PLUS ppolyf_u_CDNS_406619531453_6/MINUS
+ VSUBS ppolyf_u_CDNS_406619531453
Xppolyf_u_CDNS_406619531453_7 ppolyf_u_CDNS_406619531453_7/PLUS ppolyf_u_CDNS_406619531453_7/MINUS
+ VSUBS ppolyf_u_CDNS_406619531453
Xppolyf_u_CDNS_406619531453_8 ppolyf_u_CDNS_406619531453_8/PLUS ppolyf_u_CDNS_406619531453_8/MINUS
+ VSUBS ppolyf_u_CDNS_406619531453
Xppolyf_u_CDNS_406619531453_9 ppolyf_u_CDNS_406619531453_9/PLUS ppolyf_u_CDNS_406619531453_9/MINUS
+ VSUBS ppolyf_u_CDNS_406619531453
Xppolyf_u_CDNS_406619531453_10 ppolyf_u_CDNS_406619531453_10/PLUS ppolyf_u_CDNS_406619531453_10/MINUS
+ VSUBS ppolyf_u_CDNS_406619531453
Xppolyf_u_CDNS_406619531453_11 ppolyf_u_CDNS_406619531453_11/PLUS ppolyf_u_CDNS_406619531453_11/MINUS
+ VSUBS ppolyf_u_CDNS_406619531453
.ends

.subckt pmos_6p0_CDNS_406619531452 w_n208_n120# D a_732_n44# a_0_n44# S a_244_n44#
+ a_488_n44#
X0 S a_732_n44# D w_n208_n120# pfet_05v0 ad=2.2p pd=10.88u as=1.3p ps=5.52u w=5u l=0.7u
X1 S a_244_n44# D w_n208_n120# pfet_05v0 ad=1.3p pd=5.52u as=1.3p ps=5.52u w=5u l=0.7u
X2 D a_488_n44# S w_n208_n120# pfet_05v0 ad=1.3p pd=5.52u as=1.3p ps=5.52u w=5u l=0.7u
X3 D a_0_n44# S w_n208_n120# pfet_05v0 ad=1.3p pd=5.52u as=2.2p ps=10.88u w=5u l=0.7u
.ends

.subckt nmos_6p0_CDNS_406619531457 D a_3904_n44# a_4392_n44# a_2928_n44# a_1952_n44#
+ a_4148_n44# a_3172_n44# a_1708_n44# a_2196_n44# a_732_n44# a_976_n44# a_0_n44# S
+ a_4636_n44# a_3660_n44# a_3416_n44# a_2440_n44# a_2684_n44# a_1220_n44# a_1464_n44#
+ a_244_n44# a_488_n44# VSUBS
X0 S a_1708_n44# D VSUBS nfet_05v0 ad=13p pd=50.52u as=13p ps=50.52u w=50u l=0.7u
X1 D a_1952_n44# S VSUBS nfet_05v0 ad=13p pd=50.52u as=13p ps=50.52u w=50u l=0.7u
X2 D a_2928_n44# S VSUBS nfet_05v0 ad=13p pd=50.52u as=13p ps=50.52u w=50u l=0.7u
X3 S a_3172_n44# D VSUBS nfet_05v0 ad=13p pd=50.52u as=13p ps=50.52u w=50u l=0.7u
X4 S a_4148_n44# D VSUBS nfet_05v0 ad=13p pd=50.52u as=13p ps=50.52u w=50u l=0.7u
X5 D a_3904_n44# S VSUBS nfet_05v0 ad=13p pd=50.52u as=13p ps=50.52u w=50u l=0.7u
X6 D a_4392_n44# S VSUBS nfet_05v0 ad=13p pd=50.52u as=13p ps=50.52u w=50u l=0.7u
X7 D a_976_n44# S VSUBS nfet_05v0 ad=13p pd=50.52u as=13p ps=50.52u w=50u l=0.7u
X8 S a_732_n44# D VSUBS nfet_05v0 ad=13p pd=50.52u as=13p ps=50.52u w=50u l=0.7u
X9 D a_1464_n44# S VSUBS nfet_05v0 ad=13p pd=50.52u as=13p ps=50.52u w=50u l=0.7u
X10 S a_1220_n44# D VSUBS nfet_05v0 ad=13p pd=50.52u as=13p ps=50.52u w=50u l=0.7u
X11 S a_2684_n44# D VSUBS nfet_05v0 ad=13p pd=50.52u as=13p ps=50.52u w=50u l=0.7u
X12 D a_2440_n44# S VSUBS nfet_05v0 ad=13p pd=50.52u as=13p ps=50.52u w=50u l=0.7u
X13 D a_3416_n44# S VSUBS nfet_05v0 ad=13p pd=50.52u as=13p ps=50.52u w=50u l=0.7u
X14 S a_3660_n44# D VSUBS nfet_05v0 ad=13p pd=50.52u as=13p ps=50.52u w=50u l=0.7u
X15 S a_4636_n44# D VSUBS nfet_05v0 ad=22p pd=0.10088m as=13p ps=50.52u w=50u l=0.7u
X16 S a_244_n44# D VSUBS nfet_05v0 ad=13p pd=50.52u as=13p ps=50.52u w=50u l=0.7u
X17 D a_488_n44# S VSUBS nfet_05v0 ad=13p pd=50.52u as=13p ps=50.52u w=50u l=0.7u
X18 D a_0_n44# S VSUBS nfet_05v0 ad=13p pd=50.52u as=22p ps=0.10088m w=50u l=0.7u
X19 S a_2196_n44# D VSUBS nfet_05v0 ad=13p pd=50.52u as=13p ps=50.52u w=50u l=0.7u
.ends

.subckt nmos_clamp_20_50_4_DVSS nmos_6p0_CDNS_406619531457_2/a_732_n44# nmos_6p0_CDNS_406619531457_3/a_0_n44#
+ nmos_6p0_CDNS_406619531457_2/a_976_n44# M2_M1_CDNS_40661953145136_7/m1_n92_n2414#
+ M2_M1_CDNS_40661953145136_2/m1_n92_n2414# nmos_6p0_CDNS_406619531457_0/a_3660_n44#
+ nmos_6p0_CDNS_406619531457_0/a_4636_n44# nmos_6p0_CDNS_406619531457_1/a_3660_n44#
+ nmos_6p0_CDNS_406619531457_1/a_4636_n44# nmos_6p0_CDNS_406619531457_0/a_2440_n44#
+ nmos_6p0_CDNS_406619531457_0/a_3416_n44# nmos_6p0_CDNS_406619531457_3/a_732_n44#
+ nmos_6p0_CDNS_406619531457_2/a_4636_n44# nmos_6p0_CDNS_406619531457_2/a_3660_n44#
+ nmos_6p0_CDNS_406619531457_0/a_0_n44# nmos_6p0_CDNS_406619531457_0/a_2684_n44# nmos_6p0_CDNS_406619531457_1/a_2440_n44#
+ nmos_6p0_CDNS_406619531457_1/a_3416_n44# nmos_6p0_CDNS_406619531457_0/a_1220_n44#
+ nmos_6p0_CDNS_406619531457_3/a_976_n44# nmos_6p0_CDNS_406619531457_3/a_3660_n44#
+ nmos_6p0_CDNS_406619531457_3/a_4636_n44# nmos_6p0_CDNS_406619531457_2/a_3416_n44#
+ nmos_6p0_CDNS_406619531457_2/a_2440_n44# nmos_6p0_CDNS_406619531457_1/a_2684_n44#
+ nmos_6p0_CDNS_406619531457_0/a_1464_n44# nmos_6p0_CDNS_406619531457_1/a_1220_n44#
+ nmos_6p0_CDNS_406619531457_2/a_2684_n44# nmos_6p0_CDNS_406619531457_1/a_1464_n44#
+ nmos_6p0_CDNS_406619531457_3/a_2440_n44# nmos_6p0_CDNS_406619531457_3/a_3416_n44#
+ nmos_6p0_CDNS_406619531457_2/a_1220_n44# nmos_6p0_CDNS_406619531457_3/a_2684_n44#
+ nmos_6p0_CDNS_406619531457_2/a_1464_n44# nmos_6p0_CDNS_406619531457_3/S nmos_6p0_CDNS_406619531457_3/a_1220_n44#
+ nmos_6p0_CDNS_406619531457_3/a_1464_n44# M2_M1_CDNS_40661953145136_6/m1_n92_n2414#
+ M2_M1_CDNS_40661953145136_1/m1_n92_n2414# nmos_6p0_CDNS_406619531457_0/a_244_n44#
+ nmos_6p0_CDNS_406619531457_0/a_488_n44# nmos_6p0_CDNS_406619531457_1/a_0_n44# M2_M1_CDNS_40661953145136_5/m1_n92_n2414#
+ M2_M1_CDNS_40661953145136_0/m1_n92_n2414# nmos_6p0_CDNS_406619531457_1/a_244_n44#
+ nmos_6p0_CDNS_406619531457_1/a_488_n44# nmos_6p0_CDNS_406619531457_2/a_244_n44#
+ nmos_6p0_CDNS_406619531457_0/a_3904_n44# nmos_6p0_CDNS_406619531457_1/a_3904_n44#
+ nmos_6p0_CDNS_406619531457_2/a_488_n44# nmos_6p0_CDNS_406619531457_0/a_4392_n44#
+ nmos_6p0_CDNS_406619531457_2/a_3904_n44# nmos_6p0_CDNS_406619531457_0/a_2928_n44#
+ nmos_6p0_CDNS_406619531457_0/a_1952_n44# nmos_6p0_CDNS_406619531457_1/a_4392_n44#
+ nmos_6p0_CDNS_406619531457_0/a_4148_n44# nmos_6p0_CDNS_406619531457_0/a_3172_n44#
+ nmos_6p0_CDNS_406619531457_3/a_3904_n44# nmos_6p0_CDNS_406619531457_2/a_4392_n44#
+ nmos_6p0_CDNS_406619531457_1/a_1952_n44# nmos_6p0_CDNS_406619531457_1/a_2928_n44#
+ nmos_6p0_CDNS_406619531457_0/a_1708_n44# nmos_6p0_CDNS_406619531457_1/a_4148_n44#
+ nmos_6p0_CDNS_406619531457_1/a_3172_n44# nmos_6p0_CDNS_406619531457_2/a_1952_n44#
+ nmos_6p0_CDNS_406619531457_2/a_2928_n44# nmos_6p0_CDNS_406619531457_3/a_244_n44#
+ nmos_6p0_CDNS_406619531457_3/a_4392_n44# nmos_6p0_CDNS_406619531457_2/a_3172_n44#
+ nmos_6p0_CDNS_406619531457_2/a_4148_n44# nmos_6p0_CDNS_406619531457_0/a_2196_n44#
+ M2_M1_CDNS_40661953145136_4/m1_n92_n2414# nmos_6p0_CDNS_406619531457_1/a_1708_n44#
+ nmos_6p0_CDNS_406619531457_3/a_488_n44# nmos_6p0_CDNS_406619531457_3/a_1952_n44#
+ nmos_6p0_CDNS_406619531457_3/a_2928_n44# nmos_6p0_CDNS_406619531457_2/a_1708_n44#
+ nmos_6p0_CDNS_406619531457_1/a_2196_n44# nmos_6p0_CDNS_406619531457_3/a_3172_n44#
+ nmos_6p0_CDNS_406619531457_3/a_4148_n44# nmos_6p0_CDNS_406619531457_3/a_1708_n44#
+ nmos_6p0_CDNS_406619531457_2/a_2196_n44# nmos_6p0_CDNS_406619531457_2/a_0_n44# nmos_6p0_CDNS_406619531457_3/a_2196_n44#
+ nmos_6p0_CDNS_406619531457_2/D nmos_6p0_CDNS_406619531457_0/a_732_n44# nmos_6p0_CDNS_406619531457_1/D
+ M2_M1_CDNS_4066195314573_7/m1_n92_n146# nmos_6p0_CDNS_406619531457_0/a_976_n44#
+ M2_M1_CDNS_40661953145136_3/m1_n92_n2414# nmos_6p0_CDNS_406619531457_1/a_732_n44#
+ nmos_6p0_CDNS_406619531457_1/S nmos_6p0_CDNS_406619531457_1/a_976_n44# nmos_6p0_CDNS_406619531457_0/D
+ nmos_6p0_CDNS_406619531457_2/S nmos_6p0_CDNS_406619531457_0/S nmos_6p0_CDNS_406619531457_3/D
+ VSUBS
Xnmos_6p0_CDNS_406619531457_0 nmos_6p0_CDNS_406619531457_0/D nmos_6p0_CDNS_406619531457_0/a_3904_n44#
+ nmos_6p0_CDNS_406619531457_0/a_4392_n44# nmos_6p0_CDNS_406619531457_0/a_2928_n44#
+ nmos_6p0_CDNS_406619531457_0/a_1952_n44# nmos_6p0_CDNS_406619531457_0/a_4148_n44#
+ nmos_6p0_CDNS_406619531457_0/a_3172_n44# nmos_6p0_CDNS_406619531457_0/a_1708_n44#
+ nmos_6p0_CDNS_406619531457_0/a_2196_n44# nmos_6p0_CDNS_406619531457_0/a_732_n44#
+ nmos_6p0_CDNS_406619531457_0/a_976_n44# nmos_6p0_CDNS_406619531457_0/a_0_n44# nmos_6p0_CDNS_406619531457_0/S
+ nmos_6p0_CDNS_406619531457_0/a_4636_n44# nmos_6p0_CDNS_406619531457_0/a_3660_n44#
+ nmos_6p0_CDNS_406619531457_0/a_3416_n44# nmos_6p0_CDNS_406619531457_0/a_2440_n44#
+ nmos_6p0_CDNS_406619531457_0/a_2684_n44# nmos_6p0_CDNS_406619531457_0/a_1220_n44#
+ nmos_6p0_CDNS_406619531457_0/a_1464_n44# nmos_6p0_CDNS_406619531457_0/a_244_n44#
+ nmos_6p0_CDNS_406619531457_0/a_488_n44# VSUBS nmos_6p0_CDNS_406619531457
Xnmos_6p0_CDNS_406619531457_1 nmos_6p0_CDNS_406619531457_1/D nmos_6p0_CDNS_406619531457_1/a_3904_n44#
+ nmos_6p0_CDNS_406619531457_1/a_4392_n44# nmos_6p0_CDNS_406619531457_1/a_2928_n44#
+ nmos_6p0_CDNS_406619531457_1/a_1952_n44# nmos_6p0_CDNS_406619531457_1/a_4148_n44#
+ nmos_6p0_CDNS_406619531457_1/a_3172_n44# nmos_6p0_CDNS_406619531457_1/a_1708_n44#
+ nmos_6p0_CDNS_406619531457_1/a_2196_n44# nmos_6p0_CDNS_406619531457_1/a_732_n44#
+ nmos_6p0_CDNS_406619531457_1/a_976_n44# nmos_6p0_CDNS_406619531457_1/a_0_n44# nmos_6p0_CDNS_406619531457_1/S
+ nmos_6p0_CDNS_406619531457_1/a_4636_n44# nmos_6p0_CDNS_406619531457_1/a_3660_n44#
+ nmos_6p0_CDNS_406619531457_1/a_3416_n44# nmos_6p0_CDNS_406619531457_1/a_2440_n44#
+ nmos_6p0_CDNS_406619531457_1/a_2684_n44# nmos_6p0_CDNS_406619531457_1/a_1220_n44#
+ nmos_6p0_CDNS_406619531457_1/a_1464_n44# nmos_6p0_CDNS_406619531457_1/a_244_n44#
+ nmos_6p0_CDNS_406619531457_1/a_488_n44# VSUBS nmos_6p0_CDNS_406619531457
Xnmos_6p0_CDNS_406619531457_2 nmos_6p0_CDNS_406619531457_2/D nmos_6p0_CDNS_406619531457_2/a_3904_n44#
+ nmos_6p0_CDNS_406619531457_2/a_4392_n44# nmos_6p0_CDNS_406619531457_2/a_2928_n44#
+ nmos_6p0_CDNS_406619531457_2/a_1952_n44# nmos_6p0_CDNS_406619531457_2/a_4148_n44#
+ nmos_6p0_CDNS_406619531457_2/a_3172_n44# nmos_6p0_CDNS_406619531457_2/a_1708_n44#
+ nmos_6p0_CDNS_406619531457_2/a_2196_n44# nmos_6p0_CDNS_406619531457_2/a_732_n44#
+ nmos_6p0_CDNS_406619531457_2/a_976_n44# nmos_6p0_CDNS_406619531457_2/a_0_n44# nmos_6p0_CDNS_406619531457_2/S
+ nmos_6p0_CDNS_406619531457_2/a_4636_n44# nmos_6p0_CDNS_406619531457_2/a_3660_n44#
+ nmos_6p0_CDNS_406619531457_2/a_3416_n44# nmos_6p0_CDNS_406619531457_2/a_2440_n44#
+ nmos_6p0_CDNS_406619531457_2/a_2684_n44# nmos_6p0_CDNS_406619531457_2/a_1220_n44#
+ nmos_6p0_CDNS_406619531457_2/a_1464_n44# nmos_6p0_CDNS_406619531457_2/a_244_n44#
+ nmos_6p0_CDNS_406619531457_2/a_488_n44# VSUBS nmos_6p0_CDNS_406619531457
Xnmos_6p0_CDNS_406619531457_3 nmos_6p0_CDNS_406619531457_3/D nmos_6p0_CDNS_406619531457_3/a_3904_n44#
+ nmos_6p0_CDNS_406619531457_3/a_4392_n44# nmos_6p0_CDNS_406619531457_3/a_2928_n44#
+ nmos_6p0_CDNS_406619531457_3/a_1952_n44# nmos_6p0_CDNS_406619531457_3/a_4148_n44#
+ nmos_6p0_CDNS_406619531457_3/a_3172_n44# nmos_6p0_CDNS_406619531457_3/a_1708_n44#
+ nmos_6p0_CDNS_406619531457_3/a_2196_n44# nmos_6p0_CDNS_406619531457_3/a_732_n44#
+ nmos_6p0_CDNS_406619531457_3/a_976_n44# nmos_6p0_CDNS_406619531457_3/a_0_n44# nmos_6p0_CDNS_406619531457_3/S
+ nmos_6p0_CDNS_406619531457_3/a_4636_n44# nmos_6p0_CDNS_406619531457_3/a_3660_n44#
+ nmos_6p0_CDNS_406619531457_3/a_3416_n44# nmos_6p0_CDNS_406619531457_3/a_2440_n44#
+ nmos_6p0_CDNS_406619531457_3/a_2684_n44# nmos_6p0_CDNS_406619531457_3/a_1220_n44#
+ nmos_6p0_CDNS_406619531457_3/a_1464_n44# nmos_6p0_CDNS_406619531457_3/a_244_n44#
+ nmos_6p0_CDNS_406619531457_3/a_488_n44# VSUBS nmos_6p0_CDNS_406619531457
.ends

.subckt nmos_6p0_CDNS_406619531458 D a_732_n44# a_976_n44# a_0_n44# S a_1220_n44#
+ a_244_n44# a_488_n44# VSUBS
X0 D a_976_n44# S VSUBS nfet_05v0 ad=1.3p pd=5.52u as=1.3p ps=5.52u w=5u l=0.7u
X1 S a_732_n44# D VSUBS nfet_05v0 ad=1.3p pd=5.52u as=1.3p ps=5.52u w=5u l=0.7u
X2 S a_1220_n44# D VSUBS nfet_05v0 ad=2.2p pd=10.88u as=1.3p ps=5.52u w=5u l=0.7u
X3 S a_244_n44# D VSUBS nfet_05v0 ad=1.3p pd=5.52u as=1.3p ps=5.52u w=5u l=0.7u
X4 D a_488_n44# S VSUBS nfet_05v0 ad=1.3p pd=5.52u as=1.3p ps=5.52u w=5u l=0.7u
X5 D a_0_n44# S VSUBS nfet_05v0 ad=1.3p pd=5.52u as=2.2p ps=10.88u w=5u l=0.7u
.ends

.subckt comp018green_esd_clamp_v5p0_DVSS pmos_6p0_CDNS_406619531452_0/a_244_n44# pmos_6p0_CDNS_406619531452_0/D
+ pmos_6p0_CDNS_406619531452_0/a_488_n44# comp018green_esd_rc_v5p0_0/ppolyf_u_CDNS_406619531453_8/PLUS
+ nmos_clamp_20_50_4_DVSS_0/nmos_6p0_CDNS_406619531457_0/a_732_n44# nmos_clamp_20_50_4_DVSS_0/nmos_6p0_CDNS_406619531457_0/a_976_n44#
+ nmos_clamp_20_50_4_DVSS_0/nmos_6p0_CDNS_406619531457_1/a_0_n44# M1_POLY2_CDNS_40661953145106_0/a_n89_n42#
+ nmos_clamp_20_50_4_DVSS_0/nmos_6p0_CDNS_406619531457_0/a_3904_n44# comp018green_esd_rc_v5p0_0/ppolyf_u_CDNS_406619531453_10/PLUS
+ comp018green_esd_rc_v5p0_0/ppolyf_u_CDNS_406619531453_5/PLUS nmos_clamp_20_50_4_DVSS_0/nmos_6p0_CDNS_406619531457_1/a_3904_n44#
+ nmos_clamp_20_50_4_DVSS_0/M2_M1_CDNS_40661953145136_7/m1_n92_n2414# nmos_clamp_20_50_4_DVSS_0/nmos_6p0_CDNS_406619531457_0/a_4392_n44#
+ nmos_clamp_20_50_4_DVSS_0/nmos_6p0_CDNS_406619531457_1/a_732_n44# nmos_clamp_20_50_4_DVSS_0/M2_M1_CDNS_40661953145136_2/m1_n92_n2414#
+ nmos_clamp_20_50_4_DVSS_0/nmos_6p0_CDNS_406619531457_2/a_3904_n44# nmos_clamp_20_50_4_DVSS_0/nmos_6p0_CDNS_406619531457_0/a_2928_n44#
+ nmos_clamp_20_50_4_DVSS_0/nmos_6p0_CDNS_406619531457_0/a_1952_n44# nmos_clamp_20_50_4_DVSS_0/nmos_6p0_CDNS_406619531457_1/a_976_n44#
+ nmos_clamp_20_50_4_DVSS_0/nmos_6p0_CDNS_406619531457_1/a_4392_n44# nmos_clamp_20_50_4_DVSS_0/nmos_6p0_CDNS_406619531457_0/a_4148_n44#
+ nmos_clamp_20_50_4_DVSS_0/nmos_6p0_CDNS_406619531457_0/a_3172_n44# pmos_6p0_CDNS_406619531455_0/a_5612_n44#
+ nmos_clamp_20_50_4_DVSS_0/nmos_6p0_CDNS_406619531457_1/a_1952_n44# nmos_clamp_20_50_4_DVSS_0/nmos_6p0_CDNS_406619531457_1/a_2928_n44#
+ nmos_clamp_20_50_4_DVSS_0/nmos_6p0_CDNS_406619531457_3/a_3904_n44# nmos_6p0_CDNS_406619531458_0/a_244_n44#
+ nmos_6p0_CDNS_406619531459_0/S nmos_clamp_20_50_4_DVSS_0/nmos_6p0_CDNS_406619531457_2/a_4392_n44#
+ nmos_clamp_20_50_4_DVSS_0/nmos_6p0_CDNS_406619531457_0/a_1708_n44# nmos_clamp_20_50_4_DVSS_0/nmos_6p0_CDNS_406619531457_1/a_3172_n44#
+ pmos_6p0_CDNS_406619531456_0/a_244_n44# nmos_clamp_20_50_4_DVSS_0/nmos_6p0_CDNS_406619531457_1/a_4148_n44#
+ nmos_6p0_CDNS_406619531458_0/a_488_n44# pmos_6p0_CDNS_406619531455_0/a_4880_n44#
+ M2_M1_CDNS_4066195314585_1/m1_n254_n38# comp018green_esd_rc_v5p0_0/ppolyf_u_CDNS_406619531453_2/PLUS
+ nmos_clamp_20_50_4_DVSS_0/nmos_6p0_CDNS_406619531457_2/a_1952_n44# nmos_clamp_20_50_4_DVSS_0/nmos_6p0_CDNS_406619531457_2/a_2928_n44#
+ nmos_clamp_20_50_4_DVSS_0/nmos_6p0_CDNS_406619531457_3/a_4392_n44# nmos_clamp_20_50_4_DVSS_0/nmos_6p0_CDNS_406619531457_2/a_3172_n44#
+ nmos_clamp_20_50_4_DVSS_0/nmos_6p0_CDNS_406619531457_2/a_4148_n44# nmos_clamp_20_50_4_DVSS_0/nmos_6p0_CDNS_406619531457_1/a_1708_n44#
+ pmos_6p0_CDNS_406619531456_0/a_488_n44# nmos_clamp_20_50_4_DVSS_0/nmos_6p0_CDNS_406619531457_0/a_2196_n44#
+ nmos_6p0_CDNS_406619531458_0/a_0_n44# pmos_6p0_CDNS_406619531455_0/a_3660_n44# nmos_clamp_20_50_4_DVSS_0/nmos_6p0_CDNS_406619531457_3/a_1952_n44#
+ nmos_clamp_20_50_4_DVSS_0/nmos_6p0_CDNS_406619531457_3/a_2928_n44# pmos_6p0_CDNS_406619531455_0/a_4636_n44#
+ nmos_clamp_20_50_4_DVSS_0/nmos_6p0_CDNS_406619531457_2/a_1708_n44# nmos_clamp_20_50_4_DVSS_0/nmos_6p0_CDNS_406619531457_2/a_732_n44#
+ nmos_clamp_20_50_4_DVSS_0/nmos_6p0_CDNS_406619531457_3/a_3172_n44# nmos_clamp_20_50_4_DVSS_0/nmos_6p0_CDNS_406619531457_3/a_4148_n44#
+ nmos_clamp_20_50_4_DVSS_0/nmos_6p0_CDNS_406619531457_1/a_2196_n44# nmos_clamp_20_50_4_DVSS_0/nmos_6p0_CDNS_406619531457_2/a_976_n44#
+ pmos_6p0_CDNS_406619531456_0/D pmos_6p0_CDNS_406619531455_0/a_2440_n44# pmos_6p0_CDNS_406619531455_0/a_3416_n44#
+ nmos_clamp_20_50_4_DVSS_0/nmos_6p0_CDNS_406619531457_3/a_1708_n44# nmos_clamp_20_50_4_DVSS_0/nmos_6p0_CDNS_406619531457_2/a_2196_n44#
+ nmos_6p0_CDNS_406619531458_1/a_244_n44# pmos_6p0_CDNS_406619531455_0/a_0_n44# M1_POLY2_CDNS_40661953145110_0/a_n2862_n42#
+ pmos_6p0_CDNS_406619531455_0/a_2684_n44# pmos_6p0_CDNS_406619531455_0/a_1220_n44#
+ nmos_6p0_CDNS_406619531458_1/a_488_n44# nmos_clamp_20_50_4_DVSS_0/nmos_6p0_CDNS_406619531457_3/a_2196_n44#
+ nmos_6p0_CDNS_406619531458_0/D nmos_6p0_CDNS_406619531459_0/a_0_n44# pmos_6p0_CDNS_406619531455_0/a_1464_n44#
+ M1_POLY2_CDNS_40661953145109_0/a_n653_n42# nmos_clamp_20_50_4_DVSS_0/nmos_6p0_CDNS_406619531457_3/S
+ nmos_clamp_20_50_4_DVSS_0/nmos_6p0_CDNS_406619531457_3/a_732_n44# M1_POLY2_CDNS_40661953145109_1/a_n653_n42#
+ nmos_clamp_20_50_4_DVSS_0/M2_M1_CDNS_40661953145136_6/m1_n92_n2414# nmos_clamp_20_50_4_DVSS_0/nmos_6p0_CDNS_406619531457_3/a_976_n44#
+ nmos_clamp_20_50_4_DVSS_0/M2_M1_CDNS_40661953145136_1/m1_n92_n2414# pmos_6p0_CDNS_406619531456_0/a_0_n44#
+ comp018green_esd_rc_v5p0_0/ppolyf_u_CDNS_406619531453_9/PLUS nmos_clamp_20_50_4_DVSS_0/nmos_6p0_CDNS_406619531457_2/a_0_n44#
+ pmos_6p0_CDNS_406619531455_0/a_244_n44# pmos_6p0_CDNS_406619531455_0/a_488_n44#
+ comp018green_esd_rc_v5p0_0/ppolyf_u_CDNS_406619531453_11/PLUS comp018green_esd_rc_v5p0_0/ppolyf_u_CDNS_406619531453_6/PLUS
+ M2_M1_CDNS_40661953145159_1/m1_n714_n38# comp018green_esd_rc_v5p0_0/ppolyf_u_CDNS_406619531453_0/MINUS
+ pmos_6p0_CDNS_406619531452_0/a_732_n44# comp018green_esd_rc_v5p0_0/ppolyf_u_CDNS_406619531453_1/MINUS
+ nmos_6p0_CDNS_406619531458_0/a_1220_n44# M2_M1_CDNS_40661953145113_0/m1_n454_n38#
+ comp018green_esd_rc_v5p0_0/ppolyf_u_CDNS_406619531453_3/PLUS nmos_6p0_CDNS_406619531458_1/a_0_n44#
+ M2_M1_CDNS_40661953145125_1/m1_n142_n38# comp018green_esd_rc_v5p0_0/ppolyf_u_CDNS_406619531453_2/MINUS
+ nmos_6p0_CDNS_406619531458_1/a_1220_n44# pmos_6p0_CDNS_406619531455_0/S nmos_clamp_20_50_4_DVSS_0/M2_M1_CDNS_40661953145136_5/m1_n92_n2414#
+ comp018green_esd_rc_v5p0_0/ppolyf_u_CDNS_406619531453_3/MINUS nmos_clamp_20_50_4_DVSS_0/M2_M1_CDNS_40661953145136_0/m1_n92_n2414#
+ comp018green_esd_rc_v5p0_0/ppolyf_u_CDNS_406619531453_0/PLUS nmos_6p0_CDNS_406619531459_0/D
+ nmos_clamp_20_50_4_DVSS_0/nmos_6p0_CDNS_406619531457_0/a_244_n44# comp018green_esd_rc_v5p0_0/ppolyf_u_CDNS_406619531453_4/MINUS
+ comp018green_esd_rc_v5p0_0/ppolyf_u_CDNS_406619531453_10/MINUS nmos_clamp_20_50_4_DVSS_0/nmos_6p0_CDNS_406619531457_0/a_488_n44#
+ comp018green_esd_rc_v5p0_0/ppolyf_u_CDNS_406619531453_5/MINUS nmos_clamp_20_50_4_DVSS_0/nmos_6p0_CDNS_406619531457_0/a_3660_n44#
+ nmos_clamp_20_50_4_DVSS_0/nmos_6p0_CDNS_406619531457_0/a_4636_n44# nmos_6p0_CDNS_406619531458_0/a_732_n44#
+ comp018green_esd_rc_v5p0_0/ppolyf_u_CDNS_406619531453_11/MINUS nmos_clamp_20_50_4_DVSS_0/nmos_6p0_CDNS_406619531457_1/a_3660_n44#
+ nmos_clamp_20_50_4_DVSS_0/nmos_6p0_CDNS_406619531457_1/a_4636_n44# M2_M1_CDNS_40661953145159_0/m1_n714_n38#
+ nmos_clamp_20_50_4_DVSS_0/nmos_6p0_CDNS_406619531457_0/a_2440_n44# nmos_clamp_20_50_4_DVSS_0/nmos_6p0_CDNS_406619531457_0/a_3416_n44#
+ nmos_6p0_CDNS_406619531458_0/a_976_n44# comp018green_esd_rc_v5p0_0/ppolyf_u_CDNS_406619531453_6/MINUS
+ nmos_clamp_20_50_4_DVSS_0/nmos_6p0_CDNS_406619531457_2/a_4636_n44# nmos_clamp_20_50_4_DVSS_0/nmos_6p0_CDNS_406619531457_2/a_3660_n44#
+ nmos_clamp_20_50_4_DVSS_0/nmos_6p0_CDNS_406619531457_0/a_2684_n44# nmos_clamp_20_50_4_DVSS_0/nmos_6p0_CDNS_406619531457_3/a_0_n44#
+ nmos_clamp_20_50_4_DVSS_0/nmos_6p0_CDNS_406619531457_1/a_2440_n44# nmos_clamp_20_50_4_DVSS_0/nmos_6p0_CDNS_406619531457_1/a_3416_n44#
+ nmos_clamp_20_50_4_DVSS_0/nmos_6p0_CDNS_406619531457_0/a_1220_n44# nmos_clamp_20_50_4_DVSS_0/nmos_6p0_CDNS_406619531457_1/a_244_n44#
+ comp018green_esd_rc_v5p0_0/ppolyf_u_CDNS_406619531453_7/MINUS nmos_clamp_20_50_4_DVSS_0/nmos_6p0_CDNS_406619531457_2/a_2440_n44#
+ nmos_clamp_20_50_4_DVSS_0/nmos_6p0_CDNS_406619531457_1/a_2684_n44# nmos_clamp_20_50_4_DVSS_0/nmos_6p0_CDNS_406619531457_3/a_3660_n44#
+ nmos_clamp_20_50_4_DVSS_0/nmos_6p0_CDNS_406619531457_3/a_4636_n44# nmos_clamp_20_50_4_DVSS_0/nmos_6p0_CDNS_406619531457_1/S
+ nmos_clamp_20_50_4_DVSS_0/nmos_6p0_CDNS_406619531457_2/a_3416_n44# nmos_clamp_20_50_4_DVSS_0/nmos_6p0_CDNS_406619531457_0/a_1464_n44#
+ nmos_clamp_20_50_4_DVSS_0/nmos_6p0_CDNS_406619531457_1/a_1220_n44# nmos_clamp_20_50_4_DVSS_0/nmos_6p0_CDNS_406619531457_1/a_488_n44#
+ pmos_6p0_CDNS_406619531455_0/a_3904_n44# nmos_clamp_20_50_4_DVSS_0/nmos_6p0_CDNS_406619531457_2/a_2684_n44#
+ nmos_clamp_20_50_4_DVSS_0/nmos_6p0_CDNS_406619531457_3/a_2440_n44# nmos_clamp_20_50_4_DVSS_0/nmos_6p0_CDNS_406619531457_3/a_3416_n44#
+ pmos_6p0_CDNS_406619531455_0/a_5124_n44# M2_M1_CDNS_40661953145125_0/m1_n142_n38#
+ nmos_6p0_CDNS_406619531458_1/a_732_n44# nmos_clamp_20_50_4_DVSS_0/nmos_6p0_CDNS_406619531457_2/a_1220_n44#
+ nmos_clamp_20_50_4_DVSS_0/nmos_6p0_CDNS_406619531457_1/a_1464_n44# M2_M1_CDNS_4066195314586_1/m1_n92_n38#
+ comp018green_esd_rc_v5p0_0/ppolyf_u_CDNS_406619531453_8/MINUS pmos_6p0_CDNS_406619531455_0/a_4392_n44#
+ pmos_6p0_CDNS_406619531455_0/a_5368_n44# nmos_6p0_CDNS_406619531458_1/a_976_n44#
+ nmos_clamp_20_50_4_DVSS_0/M2_M1_CDNS_40661953145136_4/m1_n92_n2414# nmos_clamp_20_50_4_DVSS_0/nmos_6p0_CDNS_406619531457_3/a_2684_n44#
+ comp018green_esd_rc_v5p0_0/ppolyf_u_CDNS_406619531453_7/PLUS nmos_clamp_20_50_4_DVSS_0/nmos_6p0_CDNS_406619531457_2/a_1464_n44#
+ nmos_clamp_20_50_4_DVSS_0/nmos_6p0_CDNS_406619531457_3/a_1220_n44# pmos_6p0_CDNS_406619531455_0/a_2928_n44#
+ pmos_6p0_CDNS_406619531455_0/a_1952_n44# pmos_6p0_CDNS_406619531455_0/a_3172_n44#
+ pmos_6p0_CDNS_406619531455_0/a_4148_n44# comp018green_esd_rc_v5p0_0/ppolyf_u_CDNS_406619531453_9/MINUS
+ nmos_clamp_20_50_4_DVSS_0/nmos_6p0_CDNS_406619531457_0/a_0_n44# nmos_clamp_20_50_4_DVSS_0/nmos_6p0_CDNS_406619531457_3/a_1464_n44#
+ M2_M1_CDNS_4066195314586_3/m1_n92_n38# nmos_clamp_20_50_4_DVSS_0/nmos_6p0_CDNS_406619531457_2/a_244_n44#
+ pmos_6p0_CDNS_406619531455_0/a_1708_n44# nmos_clamp_20_50_4_DVSS_0/nmos_6p0_CDNS_406619531457_2/a_488_n44#
+ M2_M1_CDNS_4066195314586_4/m1_n92_n38# comp018green_esd_rc_v5p0_0/ppolyf_u_CDNS_406619531453_4/PLUS
+ M1_POLY2_CDNS_40661953145105_0/a_n371_n42# pmos_6p0_CDNS_406619531455_0/a_2196_n44#
+ nmos_6p0_CDNS_406619531458_1/D pmos_6p0_CDNS_406619531456_0/S M2_M1_CDNS_4066195314586_6/m1_n92_n38#
+ pmos_6p0_CDNS_406619531455_0/a_732_n44# M2_M1_CDNS_4066195314586_7/m1_n92_n38# nmos_clamp_20_50_4_DVSS_0/nmos_6p0_CDNS_406619531457_3/a_244_n44#
+ M2_M1_CDNS_40661953145103_0/m1_n92_n92# nmos_6p0_CDNS_406619531458_1/S pmos_6p0_CDNS_406619531455_0/a_976_n44#
+ nmos_clamp_20_50_4_DVSS_0/nmos_6p0_CDNS_406619531457_3/a_488_n44# M2_M1_CDNS_40661953145103_1/m1_n92_n92#
+ comp018green_esd_rc_v5p0_0/ppolyf_u_CDNS_406619531453_1/PLUS M2_M1_CDNS_40661953145117_2/m1_n90_n38#
+ nmos_clamp_20_50_4_DVSS_0/M2_M1_CDNS_40661953145136_3/m1_n92_n2414# pmos_6p0_CDNS_406619531455_0/D
+ M1_POLY2_CDNS_40661953145108_0/a_n277_n42# M2_M1_CDNS_40661953145117_3/m1_n90_n38#
+ M2_M1_CDNS_40661953145117_1/m1_n90_n38# nmos_clamp_20_50_4_DVSS_0/nmos_6p0_CDNS_406619531457_3/D
+ nmos_clamp_20_50_4_DVSS_0/nmos_6p0_CDNS_406619531457_2/D nmos_clamp_20_50_4_DVSS_0/nmos_6p0_CDNS_406619531457_0/D
+ VSUBS nmos_clamp_20_50_4_DVSS_0/M2_M1_CDNS_4066195314573_7/m1_n92_n146# nmos_clamp_20_50_4_DVSS_0/nmos_6p0_CDNS_406619531457_1/D
+ nmos_clamp_20_50_4_DVSS_0/nmos_6p0_CDNS_406619531457_2/S nmos_clamp_20_50_4_DVSS_0/nmos_6p0_CDNS_406619531457_0/S
+ pmos_6p0_CDNS_406619531452_0/a_0_n44# M2_M1_CDNS_40661953145118_0/m1_n974_n38#
Xpmos_6p0_CDNS_406619531455_0 M2_M1_CDNS_40661953145117_1/m1_n90_n38# pmos_6p0_CDNS_406619531455_0/D
+ pmos_6p0_CDNS_406619531455_0/a_5124_n44# pmos_6p0_CDNS_406619531455_0/a_3904_n44#
+ pmos_6p0_CDNS_406619531455_0/a_5368_n44# pmos_6p0_CDNS_406619531455_0/a_4392_n44#
+ pmos_6p0_CDNS_406619531455_0/a_2928_n44# pmos_6p0_CDNS_406619531455_0/a_1952_n44#
+ pmos_6p0_CDNS_406619531455_0/a_4148_n44# pmos_6p0_CDNS_406619531455_0/a_3172_n44#
+ pmos_6p0_CDNS_406619531455_0/a_1708_n44# pmos_6p0_CDNS_406619531455_0/a_2196_n44#
+ pmos_6p0_CDNS_406619531455_0/a_732_n44# pmos_6p0_CDNS_406619531455_0/a_976_n44#
+ pmos_6p0_CDNS_406619531455_0/a_0_n44# pmos_6p0_CDNS_406619531455_0/a_5612_n44# pmos_6p0_CDNS_406619531455_0/a_4880_n44#
+ pmos_6p0_CDNS_406619531455_0/S pmos_6p0_CDNS_406619531455_0/a_4636_n44# pmos_6p0_CDNS_406619531455_0/a_3660_n44#
+ pmos_6p0_CDNS_406619531455_0/a_3416_n44# pmos_6p0_CDNS_406619531455_0/a_2440_n44#
+ pmos_6p0_CDNS_406619531455_0/a_2684_n44# pmos_6p0_CDNS_406619531455_0/a_1220_n44#
+ pmos_6p0_CDNS_406619531455_0/a_1464_n44# pmos_6p0_CDNS_406619531455_0/a_244_n44#
+ pmos_6p0_CDNS_406619531455_0/a_488_n44# pmos_6p0_CDNS_406619531455
Xnmos_6p0_CDNS_406619531459_0 nmos_6p0_CDNS_406619531459_0/D nmos_6p0_CDNS_406619531459_0/a_0_n44#
+ nmos_6p0_CDNS_406619531459_0/S VSUBS nmos_6p0_CDNS_406619531459
Xpmos_6p0_CDNS_406619531456_0 M2_M1_CDNS_40661953145117_1/m1_n90_n38# pmos_6p0_CDNS_406619531456_0/D
+ pmos_6p0_CDNS_406619531456_0/a_0_n44# pmos_6p0_CDNS_406619531456_0/S pmos_6p0_CDNS_406619531456_0/a_244_n44#
+ pmos_6p0_CDNS_406619531456_0/a_488_n44# pmos_6p0_CDNS_406619531456
Xcomp018green_esd_rc_v5p0_0 comp018green_esd_rc_v5p0_0/ppolyf_u_CDNS_406619531453_10/MINUS
+ comp018green_esd_rc_v5p0_0/ppolyf_u_CDNS_406619531453_3/PLUS comp018green_esd_rc_v5p0_0/ppolyf_u_CDNS_406619531453_11/MINUS
+ comp018green_esd_rc_v5p0_0/ppolyf_u_CDNS_406619531453_0/PLUS comp018green_esd_rc_v5p0_0/ppolyf_u_CDNS_406619531453_11/PLUS
+ comp018green_esd_rc_v5p0_0/ppolyf_u_CDNS_406619531453_0/MINUS comp018green_esd_rc_v5p0_0/ppolyf_u_CDNS_406619531453_7/PLUS
+ comp018green_esd_rc_v5p0_0/ppolyf_u_CDNS_406619531453_1/MINUS comp018green_esd_rc_v5p0_0/ppolyf_u_CDNS_406619531453_2/MINUS
+ comp018green_esd_rc_v5p0_0/ppolyf_u_CDNS_406619531453_3/MINUS comp018green_esd_rc_v5p0_0/ppolyf_u_CDNS_406619531453_4/PLUS